
* ----------------------------------------------------------------------
************* XFAB ******** MODEL PARAMETERS ***************************
* ----------------------------------------------------------------------
* Simulator : HSPICE
* Device    : tag_m200v
* Desc      : defines voltage class for net >= -200V < 100V
* Model     : voltage tag subckt
*           : hspice.aux.vtag.-.1184
* Process   : XT018
* Extracted : no extraction
* Spec.     : PDS_018_06
* Revision  : 7.0.1; 2018-06-29
* ----------------------------------------------------------------------
*                        PARAMETERIZED
* ----------------------------------------------------------------------
* NOTE: Tnom = 27 degree Celsius
*
.subckt tag_m200v n1
c1 n1 0  c=1e-18
.ends tag_m200v
* ----------------------------------------------------------------------
