
* ----------------------------------------------------------------------
************* XFAB ******** MODEL PARAMETERS ***************************
* ----------------------------------------------------------------------
* Simulator : HSPICE
* Device    : phvtb
* Desc      : 40V PMOS
* Model     : HiSIM_HV 5t-subckt
*           : hspice.hisimhv_stripe.pmos.5term_hvmos5.1621
* Process   : XT018
* Extracted : S36327_w1; Date: 2021-12-01; hwl
* Spec.     : PDS_018_06
* Revision  : 11.1.2; 2022-01-31
* ----------------------------------------------------------------------
*                        PARAMETERIZED
* ----------------------------------------------------------------------
* NOTE: Tnom = 27 degree Celsius
*
* variables: w,l,ad,as,pd,ps,nrd,nrs = standard mosfet parameters
*            par1 = m = multiplier
*
.subckt phvtb d g s b sub w=1e-6 l=1e-6 ad=-1 as=-1 pd=-1 ps=-1 nrd=-1 nrs=-1
+ par1=1 ldrift=0 coselfheat=1 xf_subext=0 extlay=0
.param adl='(ad>=0)?ad:(3.76e-06*w)'
+ asl='(as>=0)?as:(0.32e-6*w)'
+ pdl='(pd>=0)?pd:(w+7.52e-6)'
+ psl='(ps>=0)?ps:((2*w)+0.64e-6)'
+ nrdl='(nrd>=0)?nrd:(0)'
+ nrsl='(nrs>=0)?nrs:(0.37e-6/w)'
+ mm_vfbc='phvtb_vfbc_mm*9.190e-03/sqrt(par1*1e12*w*(l+6.500000e-07))'
+ mm_mueph1='phvtb_mueph1_mm*1.060e-02/sqrt(par1*1e12*w*(l+6.500000e-07))'
+ mm_rdrmue='phvtb_rdrmue_mm*3.180e-03/sqrt(par1*1e12*w*(l+6.500000e-07))'
xddb d b dfwdptb area=adl perimeter=pdl m_soa=par1
rb1 b1 b r=1e-02
rbs b1 s r='extlay==0?1e-02:1e12'
.if ( extlay==0 && xf_subext==0 )
cbox b sub c='3.45e-5*(w+1e-6)*(l+4.2e-6)'
.endif
m1 d g s b1 sub phvtbmod w=w l='l+0.65e-6'
+ ad=0 as=0 pd=0 ps=0 nrd=0 nrs=0
+ coselfheat='coselfheat?2:0'
.model phvtbmod pmos
+ level=73                     version=2.4
+ corsrd=3.000e+00
+ cors=0.000e+00
+ cord=1.000e+00
+ coiprv=0.000e+00
+ copprv=1.000e+00
+ coadov=1.000e+00
+ coisub=1.000e+00
+ coiigs=0.000e+00
+ cogidl=0.000e+00
+ coflick=1.000e+00
+ coisti=0.000e+00
+ conqs=1.000e+00
+ conqsov=1.000e+00
+ cothrml=1.000e+00
+ coign=0.000e+00
+ codfm=0.000e+00
+ coqovsm=1.000e+00
+ cosym=1.000e+00
+ coovlp=1.000e+00
+ coovlps=1.000e+00
+ cotemp=3.000e+00
+ cordrift=0.000e+00
+ coerrrep=0.000e+00
+ codep=0.000e+00
+ coddlt=1.000e+00
+ cohbd=0.000e+00
+ cosnp=0.000e+00
+ info=0.000e+00
+ codio=0.000e+00
+ cofixcss=0.000e+00
+ coovjunc=0.000e+00
+ corg=0.000e+00
+ corbnet=0.000e+00
+ coselfheat=2.000e+00
+ cosubnode=1.000e+00
+ cotrench=0.000e+00
+ rbpb=5.000e+01
+ rbpd=5.000e+01
+ rbps=5.000e+01
+ rdov13=1                      
+ rdslp1=0                      
+ rdvg11=0.2907                 
+ rdict1=1                      
+ loverld='phvtb_loverld'
+ wtrench=1.000e-06
+ lovers='phvtb_lovers'
+ ldrift1=2.500e-06
+ ldrift2=1.000e-06
+ ldrift1s=0.000e+00
+ ldrift2s=0.000e+00
+ ldrifts=0.000e+00
+ subld1=0.000e+00
+ subld2=0.000e+00
+ rd='phvtb_rd_mul*(0.031)'               
+ rs=0                          
+ npext=5E+17                   
+ vover=1.776E-15               
+ falph=1                       
+ cgbo=0                        
+ rth0=18.25                    
+ powrat=1                      
+ rdvd='phvtb_rdvd_mul*(0.2)'             
+ wrdvd='phvtb_rdvd_mul*(-0.2312)'
+ rd23='phvtb_rd23_mul*(0.1436)'          
+ wrd23='phvtb_rd23_mul*(-0.007112)'
+ rd24=0                        
+ rdvb=0.07018                  
+ cvdsover=0                    
+ vmax='phvtb_vmax_mul*(1.121E+07)'       
+ wvmax='phvtb_vmax_mul*(-1E+06)'
+ vmaxt1=0.000e+00
+ vmaxt2=0.000e+00
+ bgtmp1=0.0001921              
+ bgtmp2=-4.472E-07             
+ eg0=1.114                     
+ tox='phvtb_tox'
+ xld=0.000e+00
+ rdov11=0.000e+00
+ rdov12=1.000e+00
+ rdslp2=1.000e+00
+ rdict2=0.000e+00
+ subld1l=0.000e+00
+ subld1lp=1.000e+00
+ xpdv=0.000e+00
+ xpvdth=0.000e+00
+ xpvdthg=0.000e+00
+ ddltmax=1.000e+01
+ ddltslp=0.000e+00
+ ddltict=3.000e+00
+ vfbover=-0.1738               
+ nover=9.036E+16               
+ novers=1E+17                  
+ olmdlt=5.000e+00
+ xwd=0.000e+00
+ xwdc=0.000e+00
+ xl=0.000e+00
+ xw=3.654e-07
+ saref=1.000e-06
+ sbref=1.000e-06
+ ll=0.000e+00
+ lld=0.000e+00
+ lln=0.000e+00
+ wl=0.000e+00
+ wl1=0.000e+00
+ wl1p=1.000e+00
+ wl2=0                         
+ wl2p=1.000e+00
+ wld=0.000e+00
+ wln=0.000e+00
+ rsh=7.100e+00
+ rshs=7.100e+00
+ rshg=7.500e+00
+ xqy=0.000e+00
+ xqy1=0.000e+00
+ xqy2=2.000e+00
+ vfbc='mm_vfbc+(-1.26)'                  lvfbc=0.025
+ wvfbc=-0.18
+ vbi=1.100e+00
+ nsubc='phvtb_nsubc_mul*(3.39E+17)'      lnsubc='phvtb_nsubc_mul*(-9.859E+15)'
+ parl2=1.000e-08
+ lp=2.103e-08
+ nsubp=4.251E+18               
+ nsubp0=0.000e+00
+ nsubwp=1.000e+00
+ scp1=4.441E-15                
+ scp2=0                        
+ scp3=0                        
+ sc1=0                         
+ sc2=0                         
+ sc3=0                         
+ sc4=0.000e+00
+ pgd1=0                        
+ pgd2=1.000e+00
+ pgd4=0.000e+00
+ ndep=0.075                    lndep=4.524E-19
+ ndepl=3.500e-01
+ ndeplp=1.000e+00
+ ninv=0.2082                   lninv=-0.2186
+ muecb0=670.8                  lmuecb0=1
+ muecb1=13.42                  lmuecb1=-10
+ wmuecb1=-25
+ mueph0=3.479e-01
+ mueph1='(1+mm_mueph1)*phvtb_mueph1_mul*(8571)'
+ lmueph1=0.000e+00                      
+ wmueph1=0.000e+00                      
+ pmueph1=0.000e+00                      
+ muephw=-2.451e-01
+ muepwp=4.723e-01
+ muephl=3.955e-01
+ mueplp=3.086e+00
+ mueefb=0.000e+00
+ muephs=0.000e+00
+ muepsp=1.000e+00
+ vtmp=1.815                    
+ wvth0=0.2692                  
+ muesr0=2.048e+00
+ muesr1=1E+14                  
+ muesrl=-3.270e-01
+ muesrw=0.000e+00
+ mueswp=1.000e+00
+ mueslp=5.000e+00
+ muetmp=1.133                  
+ bb=1.000e+00
+ sub1=5.482E-07                
+ sub2=28.31                    
+ svgs=0.8                      
+ svbs=0.5                      
+ svbsl=0.000e+00
+ svbslp=1.000e+00
+ svds=0.8                      
+ slg=3.000e-08
+ sub1snp=5.482E-07             
+ sub2snp=16.99                 
+ svdssnp=0.8                   
+ sub1l=9.000e-05
+ sub1lp=1.000e+00
+ sub2l=2.000e-06
+ subtmp=0.000e+00
+ fn1=50                        
+ fn2=0.00017                   
+ fn3=0                         
+ fvbs=0.012                    
+ svgsl=0.000e+00
+ svgslp=1.000e+00
+ svgsw=0.000e+00
+ svgswp=1.000e+00
+ slgl=0.000e+00
+ slglp=1.000e+00
+ nsti=2.705E+17                
+ wsti=1.135E-07                
+ wstil=1.135e-07
+ wstilp=1.000e+00
+ wstiw=-2.929e+00
+ wstiwp=1.000e+00
+ scsti1=0                      
+ scsti2=0                      
+ vthsti=0.1005                 
+ vdsti=0.000e+00
+ muesti1=0                     
+ muesti2=0                     
+ muesti3=1                     
+ nsubpsti1=0                   
+ nsubpsti2=0                   
+ nsubpsti3=1                   
+ lpext=1.000e-50
+ scp21=0.000e+00
+ scp22=0.000e+00
+ bs1=0.000e+00
+ bs2=9.000e-01
+ tpoly=2.000e-07
+ clm1=0.02693                  
+ clm2=1.219                    
+ clm3=1.811                    
+ clm5=1.000e+00
+ clm6=9.054e-02
+ voverp=2.578e-02
+ wfc=0                         
+ nsubcw=6.000e-01
+ nsubcwp=1.000e+00
+ qme1=0.000e+00
+ qme2=1.000e+00
+ qme3=0.000e+00
+ vovers=0.000e+00
+ voversp=1.000e+00
+ gidl1=2                       
+ gidl2=3E+07                   
+ gidl3=9.000e-01
+ gidl4=0.000e+00
+ gidl5=2.000e-01
+ gleak1=50                     
+ gleak2=1E+07                  
+ gleak3=0.06                   
+ gleak4=4.000e+00
+ gleak5=7.500e+03
+ gleak6=0.25                   
+ gleak7=1.000e-06
+ glpart1=5.000e-01
+ glksd1=1E-15                  
+ glksd2=1000                   
+ glksd3=-1.000e+03
+ glkb1=5E-16                   
+ glkb2=1                       
+ glkb3=0.000e+00
+ egig=0.000e+00
+ igtemp2=0.000e+00
+ igtemp3=0.000e+00
+ vzadd0=1.000e-02
+ pzadd0=5.000e-03
+ nftrp=2.3785E+08              
+ nfalp=2.4292E-18              
+ cit=0.000e+00
+ kappa=3.900e+00
+ cgdo=7.924E-12                
+ cgso=1.353E-10                
+ dly1=1.000e-10
+ dly2=7.000e-01
+ dly3=8.000e-07
+ dlyov=8.000e-05
+ tnom=2.700e+01
+ ovslp=2.100e-07
+ ovmag=6.000e-01
+ gbmin=1.000e-12
+ ibpc1=74130                   
+ ibpc1l=0.000e+00
+ ibpc1lp=1.000e+00
+ ibpc2=0                       
+ mphdfm=-3.000e-01
+ ptl=0.000e+00
+ ptp=3.500e+00
+ pt2=2.000e+00
+ ptlp=1.000e+00
+ gdl=0.000e+00
+ gdlp=0.000e+00
+ gdld=0.000e+00
+ pt4=0.000e+00
+ pt4p=1.000e+00
+ rdvg12=3.436e+00
+ cth0=4.870e-07
+ xldld=5.583e-07
+ xwdld=0.000e+00
+ rd20=1.909e-04
+ rd21=9.809e-01
+ rd22=0                        
+ rd22d=0.000e+00
+ rd25=0.000e+00
+ rdvdl=5.224e-02
+ rdvdlp=3.444e+00
+ rdvds=0.000e+00
+ rdvdsp=1.000e+00
+ rd23l=5.861e-01
+ rd23lp=-7.634e-01
+ rd23s=0.000e+00
+ rd23sp=1.000e+00
+ rds=0.000e+00
+ rdsp=1.000e+00
+ rdtemp1=9.900e-03
+ rdtemp2=1.000e-05
+ rdvdtemp1=1.109e-03
+ rdvdtemp2=-1.000e-06
+ rth0w=-1.025e+00
+ rth0wp=1.671e-01
+ rth0l=0.000e+00
+ rth0lp=1.000e+00
+ ninvd=0.000e+00
+ ninvdl=0.000e+00
+ ninvdlp=1.000e+00
+ ninvdw=8.027e-02
+ ninvdwp=1.000e+00
+ ninvdt1=4.183e-03
+ ninvdt2=3.324e-08
+ vbsmin=-1.050e+01
+ rth0nf=0.000e+00
+ rthtemp1=0.000e+00
+ rthtemp2=0.000e+00
+ prattemp1=0.000e+00
+ prattemp2=0.000e+00
+ rdvsub=1.000e+00
+ rdvdsub=3.000e-01
+ ddrift=1.750e-06
+ vbisub=7.000e-01
+ nsubsub=1.000e+15
+ shemaxdlt=1.000e-01
+ ndepm=1.000e+17
+ tndep=2.000e-07
+ tndepmin=2.000e-13
+ tndepv=0.000e+00
+ depmue0=1.000e+03
+ depmue0l=0.000e+00
+ depmue0lp=1.000e+00
+ depmue1=0.000e+00
+ depmue1l=0.000e+00
+ depmue1lp=1.000e+00
+ depmue2=1.000e+03
+ depmuea1=0.000e+00
+ depmueback0=1.000e+02
+ depmueback1=0.000e+00
+ depmueback0l=0.000e+00
+ depmueback0lp=1.000e+00
+ depmueback1l=0.000e+00
+ depmueback1lp=1.000e+00
+ depleak=5.000e-01
+ depleakl=0.000e+00
+ depleaklp=1.000e+00
+ depjleak=0.000e+00
+ depwlp=0.000e+00
+ depwlpt=0.000e+00
+ depeta=0.000e+00
+ depvmax=3.000e+07
+ depvmaxl=0.000e+00
+ depvmaxlp=1.000e+00
+ depvdsef1=2.000e+00
+ depvdsef2=5.000e-01
+ depvdsef1l=0.000e+00
+ depvdsef1lp=1.000e+00
+ depvdsef2l=0.000e+00
+ depvdsef2lp=1.000e+00
+ depmueph0=3.000e-01
+ depmueph1=5.000e+03
+ depbb=1.000e+00
+ depvtmp=0.000e+00
+ depmuetmp=1.500e+00
+ depmue0tmp=0.000e+00
+ depmue2tmp=0.000e+00
+ depddlt=3.000e+00
+ depninvdc=1.000e+02
+ depninvdh=1.000e+01
+ depninvdl=0.000e+00
+ depninvdlp=1.000e+00
+ depninvdw=0.000e+00
+ depninvdwp=1.000e+00
+ depninvdt1=0.000e+00
+ depninvdt2=0.000e+00
+ depvfbc=-1.057e+00
+ depdvfbc=1.000e-01
+ depsubsl=2.000e+00
+ depsubsl0=2.000e+00
+ depvsatr=0.000e+00
+ deprbr=1.000e+00
+ depcar=0.000e+00
+ deprdrdl1=0.000e+00
+ deprdrdl2=0.000e+00
+ depps=1.000e-02
+ depqf=1.000e-02
+ depqfres=5.000e-02
+ depfdpd=2.000e-01
+ depvgpsl=0.000e+00
+ rdrmue='(1+mm_rdrmue)*(1.010e+02)'     
+ rdrvmax=2.821e+06
+ rdrmues=1.000e+03
+ rdrvmaxs=3.000e+07
+ rdrmuetmp=1.562e+00
+ rdrmuetmps=1.562e+00
+ rdrvtmp=-3.440e-01
+ rdrvtmps=-3.440e-01
+ rdrdjunc=1.533e-06
+ rdrcx=3.441e-01
+ rdrcar=1.000e-08
+ rdrdl1=0.000e+00
+ rdrdl2=0.000e+00
+ rdrvmaxw=5.142e-02
+ rdrvmaxwp=1.000e+00
+ rdrvmaxl=4.775e-01
+ rdrvmaxlp=1.000e+00
+ rdrmuel=-2.653e-01
+ rdrmuelp=1.000e-02
+ rdrqover=1.000e+05
+ qovadd=0.000e+00
+ qovjunc=0.000e+00
+ shemax=5.000e+02
+ gdsleak=0.000e+00
+ rdrbb=1.000e+00
+ rdrbbs=1.000e+00
+ rdrbbtmp=0.000e+00
+ rdrbbtmps=0.000e+00
+ gmin=0.000e+00
+ rmin=1.000e-04
+ hbda=0.000e+00
+ hbdb=0.000e+00
+ hbdc=1.000e+02
+ hbdctmp=0.000e+00
+ hbdf=1.000e+00
+ tcjbd=0.000e+00
+ tcjbs=0.000e+00
+ tcjbdsw=0.000e+00
+ tcjbssw=0.000e+00
+ tcjbdswg=0.000e+00
+ tcjbsswg=0.000e+00
+ js0d=0                        
+ js0swd=0                      
+ js0swgd=0.000e+00
+ njd=1                         
+ njswd=1.000e+00
+ njswgd=1.000e+00
+ xtid=2.000e+00
+ cjd=0.000e+00
+ cjswd=0.000e+00
+ cjswgd=0.000e+00
+ mjd=2.910e-01
+ mjswd=2.910e-01
+ mjswgd=2.910e-01
+ pbd=2.910e-01
+ pbswd=2.910e-01
+ pbswgd=2.910e-01
+ xti2d=0.000e+00
+ cisbd=0.000e+00
+ cvbd=0.000e+00
+ ctempd=0.000e+00
+ cisbkd=0                      
+ divxd=0.000e+00
+ vdiffjd=0.0006                
+ js0s=0                        
+ js0sws=0                      
+ js0swgs=0.000e+00
+ njs=1                         
+ njsws=1.000e+00
+ njswgs=1.000e+00
+ xtis=2.000e+00
+ cjs=9.600e-04
+ cjsws=1.800e-10
+ cjswgs=1.800e-10
+ mjs=4.300e-01
+ mjsws=2.200e-01
+ mjswgs=2.200e-01
+ pbs=7.600e-01
+ pbsws=6.900e-01
+ pbswgs=6.900e-01
+ xti2s=0.000e+00
+ cisbs=0.000e+00
+ cvbs=0.000e+00
+ ctemps=0.000e+00
+ cisbks=0                      
+ divxs=0.000e+00
+ vdiffjs=0.0006                
.ends phvtb
* ----------------------------------------------------------------------
