
* nmos_iv_02.sp

.OPTION POST

M1 Vd Vg Vs 0 Pch L=220n W=180n

*** MOS Model
.model Pch PMOS level=1

*** voltage
Vds Vd Vs
Vgs Vg Vs

.DC Vds -1.8 0 0.05 SWEEP Vgs -1.8 0 0.3

.probe dc i(M1)

.end
