
* ----------------------------------------------------------------------
************* XFAB ******** MODEL PARAMETERS ***************************
* ----------------------------------------------------------------------
* Simulator : HSPICE
* Device    : qpvg_dbc
* Desc      : auxilary substrate diode
* Model     : simple forward diode model
*           : hspice.dio_fwd.model.-.1627
* Process   : XT018
* Extracted : Wafer: M65584_w15; Date: 2016-06-01; hwald
* Spec.     : PDS_018_06
* Revision  : 5.0.5; 2017-02-15
* ----------------------------------------------------------------------
*                        PARAMETERIZED
* ----------------------------------------------------------------------
* NOTE: Tnom = 27 degree Celsius
*
.model qpvg_dbc d level=1
+ tlev=0
+ n=1.000e+00
+ eg=1.120e+00
+ is=3.366e-19
+ xti=5.000e+00
+ rs=3.600e+03
+ trs=0.000e+00
+ ik=4.221e-08
+ tt=0.000e+00
+ cj=0.000e+00
+ mj=3.300e-01
+ vj=7.600e-01
+ fc=5.000e-01
*
