
* ----------------------------------------------------------------------
************* XFAB ******** MODEL PARAMETERS ***************************
* ----------------------------------------------------------------------
* Simulator : HSPICE
* Device    : tag_m300v
* Desc      : defines voltage class for net >= -300V < 200V
* Model     : voltage tag subckt
*           : hspice.aux.vtag.-.1184
* Process   : XT018
* Extracted : no extraction
* Spec.     : PDS_018_06
* Revision  : 11.0.1; 2021-10-20
* ----------------------------------------------------------------------
*                        PARAMETERIZED
* ----------------------------------------------------------------------
* NOTE: Tnom = 27 degree Celsius
*
.subckt tag_m300v n1
c1 n1 0  c=1e-18
.ends tag_m300v
* ----------------------------------------------------------------------
